@0001F000
    01 33 09 19 62 69 74 66 69 65 6C 64 5F 73 6E 61 70 73 68 6F 74 5F 73 73 5F 62 72 61 6D A0 01 00
    00 00 00 80 00 04 15 04 63 74 72 6C A0 01 80 00 00 00 00 04 00 15 06 73 74 61 74 75 73 A0 01 80
    05 00 00 00 04 00 00 07 64 65 73 74 5F 69 70 A0 01 80 08 00 00 00 04 00 05 04 70 6F 72 74 A0 01
    80 0C 00 00 00 04 00 00 07 6F 6E 65 5F 67 62 65 A0 00 00 00 00 01 00 00 01 00 0E 70 6B 74 5F 73
    69 6D 5F 65 6E 61 62 6C 65 A0 01 80 10 00 00 00 04 00 08 0B 70 61 79 6C 6F 61 64 5F 6C 65 6E A0
    01 80 14 00 00 00 04 00 09 05 65 72 69 6F 64 A0 01 80 18 00 00 00 04 00 00 03 72 73 74 A0 01 80
    1C 00 00 00 04 00 00 09 73 79 73 5F 62 6C 6F 63 6B A0 01 80 21 00 00 00 20 03 05 07 6F 61 72 64
    5F 69 64 A0 01 80 21 00 00 00 04 03 04 0A 63 6C 6B 63 6F 75 6E 74 65 72 A0 01 80 35 00 00 00 04
    03 04 03 72 65 76 A0 01 80 25 00 00 00 04 03 07 04 5F 72 63 73 A0 01 80 2D 00 00 00 04 03 04 0A
